
OS:Version,
  {87540d0a-5b46-4091-bea5-9f0e72df5733}, !- Handle
  3.7.0;                                  !- Version Identifier

OS:Site,
  {1a03f352-20e7-4d61-8a25-72fcb5e4a109}, !- Handle
  Site 1,                                 !- Name
  39.7653,                                !- Latitude {deg}
  39.7653,                                !- Longitude {deg}
  ,                                       !- Time Zone {hr}
  ,                                       !- Elevation {m}
  ;                                       !- Terrain

OS:YearDescription,
  {ca81a232-fd80-435a-bf8e-80c9d8e86f39}; !- Handle

OS:ClimateZones,
  {e552767a-49ae-4183-b2d6-adeb6c379d1e}, !- Handle
  ASHRAE,                                 !- Climate Zone Institution Name 1
  ANSI/ASHRAE Standard 169,               !- Climate Zone Document Name 1
  2006,                                   !- Climate Zone Document Year 1
  ,                                       !- Climate Zone Value 1
  CEC,                                    !- Climate Zone Institution Name 2
  California Climate Zone Descriptions,   !- Climate Zone Document Name 2
  1995,                                   !- Climate Zone Document Year 2
  ;                                       !- Climate Zone Value 2

OS:Building,
  {d5d89813-6108-4635-aeaa-9b6fe9a4044d}, !- Handle
  Building 1,                             !- Name
  ,                                       !- Building Sector Type
  -0,                                     !- North Axis {deg}
  ,                                       !- Nominal Floor to Floor Height {m}
  ,                                       !- Space Type Name
  ,                                       !- Default Construction Set Name
  ;                                       !- Default Schedule Set Name

OS:Facility,
  {88766329-9701-4aec-a7ee-cd43fa619a79}; !- Handle

OS:SimulationControl,
  {78e94e3e-9615-48e1-b394-296174f6b77f}; !- Handle

OS:Sizing:Parameters,
  {2ee73715-aca2-4b34-bce5-8d734bb36bf0}, !- Handle
  1.25,                                   !- Heating Sizing Factor
  1.15;                                   !- Cooling Sizing Factor

OS:Timestep,
  {034700dc-d36a-499e-b462-47d97f87f73a}, !- Handle
  6;                                      !- Number of Timesteps per Hour

OS:ShadowCalculation,
  {c12030a5-f48c-4a77-9223-489e70b1fc88}, !- Handle
  PolygonClipping,                        !- Shading Calculation Method
  ,                                       !- Shading Calculation Update Frequency Method
  20,                                     !- Shading Calculation Update Frequency
  15000,                                  !- Maximum Figures in Shadow Overlap Calculations
  ,                                       !- Polygon Clipping Algorithm
  512,                                    !- Pixel Counting Resolution
  ,                                       !- Sky Diffuse Modeling Algorithm
  No,                                     !- Output External Shading Calculation Results
  No,                                     !- Disable Self-Shading Within Shading Zone Groups
  No;                                     !- Disable Self-Shading From Shading Zone Groups to Other Zones

OS:HeatBalanceAlgorithm,
  {01a386fd-f1e2-4d06-8ce5-756aa098ac85}, !- Handle
  ConductionTransferFunction,             !- Algorithm
  200;                                    !- Surface Temperature Upper Limit {C}

OS:RunPeriod,
  {434ee10f-9633-4885-92b8-579b3aea6a63}, !- Handle
  Run Period 1,                           !- Name
  1,                                      !- Begin Month
  1,                                      !- Begin Day of Month
  12,                                     !- End Month
  31,                                     !- End Day of Month
  ,                                       !- Use Weather File Holidays and Special Days
  ,                                       !- Use Weather File Daylight Saving Period
  ,                                       !- Apply Weekend Holiday Rule
  ,                                       !- Use Weather File Rain Indicators
  ,                                       !- Use Weather File Snow Indicators
  ;                                       !- Number of Times Runperiod to be Repeated

OS:LifeCycleCost:Parameters,
  {cfbb3f8b-eedd-4e70-8af5-371457d3bf14}, !- Handle
  ,                                       !- Analysis Type
  ,                                       !- Discounting Convention
  ,                                       !- Inflation Approach
  ,                                       !- Real Discount Rate
  ,                                       !- Nominal Discount Rate
  ,                                       !- Inflation
  ,                                       !- Base Date Month
  ,                                       !- Base Date Year
  ,                                       !- Service Date Month
  ,                                       !- Service Date Year
  ;                                       !- Length of Study Period in Years

OS:Space,
  {df85c30a-92e6-41f0-ad0f-0e298b751a11}, !- Handle
  E_Banio,                                !- Name
  ,                                       !- Space Type Name
  ,                                       !- Default Construction Set Name
  ,                                       !- Default Schedule Set Name
  ,                                       !- Direction of Relative North {deg}
  ,                                       !- X Origin {m}
  ,                                       !- Y Origin {m}
  ,                                       !- Z Origin {m}
  {b6e4bbe2-5846-44be-bcfa-b3c0a161acbb}, !- Building Story Name
  ,                                       !- Thermal Zone Name
  ,                                       !- Part of Total Floor Area
  ,                                       !- Design Specification Outdoor Air Object Name
  ;                                       !- Building Unit Name

OS:BuildingStory,
  {b6e4bbe2-5846-44be-bcfa-b3c0a161acbb}, !- Handle
  Story 1,                                !- Name
  0,                                      !- Nominal Z Coordinate {m}
  2.4384,                                 !- Nominal Floor to Floor Height {m}
  ,                                       !- Default Construction Set Name
  ,                                       !- Default Schedule Set Name
  {45a830c9-78cb-4dfb-a410-9df7c213c6b2}, !- Group Rendering Name
  2.4384;                                 !- Nominal Floor to Ceiling Height {m}

OS:Rendering:Color,
  {45a830c9-78cb-4dfb-a410-9df7c213c6b2}, !- Handle
  Rendering Color 1,                      !- Name
  51,                                     !- Rendering Red Value
  34,                                     !- Rendering Green Value
  136,                                    !- Rendering Blue Value
  255;                                    !- Rendering Alpha Value

OS:Space,
  {e0a67a8a-f5a6-416d-adc0-41077dd0dcb3}, !- Handle
  E_Cocina,                               !- Name
  ,                                       !- Space Type Name
  ,                                       !- Default Construction Set Name
  ,                                       !- Default Schedule Set Name
  ,                                       !- Direction of Relative North {deg}
  ,                                       !- X Origin {m}
  ,                                       !- Y Origin {m}
  ,                                       !- Z Origin {m}
  {b6e4bbe2-5846-44be-bcfa-b3c0a161acbb}, !- Building Story Name
  ,                                       !- Thermal Zone Name
  ,                                       !- Part of Total Floor Area
  ,                                       !- Design Specification Outdoor Air Object Name
  ;                                       !- Building Unit Name

OS:Space,
  {ad6dc674-554f-4615-820a-6e6e34d9d07f}, !- Handle
  E_Recamara3,                            !- Name
  ,                                       !- Space Type Name
  ,                                       !- Default Construction Set Name
  ,                                       !- Default Schedule Set Name
  ,                                       !- Direction of Relative North {deg}
  ,                                       !- X Origin {m}
  ,                                       !- Y Origin {m}
  ,                                       !- Z Origin {m}
  {b6e4bbe2-5846-44be-bcfa-b3c0a161acbb}, !- Building Story Name
  ,                                       !- Thermal Zone Name
  ,                                       !- Part of Total Floor Area
  ,                                       !- Design Specification Outdoor Air Object Name
  ;                                       !- Building Unit Name

OS:Space,
  {5f36bad4-0e29-404c-b90d-bc5412d979da}, !- Handle
  E_Banio2,                               !- Name
  ,                                       !- Space Type Name
  ,                                       !- Default Construction Set Name
  ,                                       !- Default Schedule Set Name
  ,                                       !- Direction of Relative North {deg}
  ,                                       !- X Origin {m}
  ,                                       !- Y Origin {m}
  ,                                       !- Z Origin {m}
  {b6e4bbe2-5846-44be-bcfa-b3c0a161acbb}, !- Building Story Name
  ,                                       !- Thermal Zone Name
  ,                                       !- Part of Total Floor Area
  ,                                       !- Design Specification Outdoor Air Object Name
  ;                                       !- Building Unit Name

OS:Space,
  {5c48e89e-bab6-47c9-9596-0433f2b221c6}, !- Handle
  E_Closet,                               !- Name
  ,                                       !- Space Type Name
  ,                                       !- Default Construction Set Name
  ,                                       !- Default Schedule Set Name
  ,                                       !- Direction of Relative North {deg}
  ,                                       !- X Origin {m}
  ,                                       !- Y Origin {m}
  ,                                       !- Z Origin {m}
  {b6e4bbe2-5846-44be-bcfa-b3c0a161acbb}, !- Building Story Name
  ,                                       !- Thermal Zone Name
  ,                                       !- Part of Total Floor Area
  ,                                       !- Design Specification Outdoor Air Object Name
  ;                                       !- Building Unit Name

OS:Space,
  {87bb470d-305e-491e-9814-4266336c86ef}, !- Handle
  E_Escaleras,                            !- Name
  ,                                       !- Space Type Name
  ,                                       !- Default Construction Set Name
  ,                                       !- Default Schedule Set Name
  ,                                       !- Direction of Relative North {deg}
  ,                                       !- X Origin {m}
  ,                                       !- Y Origin {m}
  ,                                       !- Z Origin {m}
  {b6e4bbe2-5846-44be-bcfa-b3c0a161acbb}, !- Building Story Name
  ,                                       !- Thermal Zone Name
  ,                                       !- Part of Total Floor Area
  ,                                       !- Design Specification Outdoor Air Object Name
  ;                                       !- Building Unit Name

OS:Space,
  {d4bf2245-405c-4c6b-87b0-ea01a2829223}, !- Handle
  E_RPrincipal,                           !- Name
  ,                                       !- Space Type Name
  ,                                       !- Default Construction Set Name
  ,                                       !- Default Schedule Set Name
  ,                                       !- Direction of Relative North {deg}
  ,                                       !- X Origin {m}
  ,                                       !- Y Origin {m}
  ,                                       !- Z Origin {m}
  {b6e4bbe2-5846-44be-bcfa-b3c0a161acbb}, !- Building Story Name
  ,                                       !- Thermal Zone Name
  ,                                       !- Part of Total Floor Area
  ,                                       !- Design Specification Outdoor Air Object Name
  ;                                       !- Building Unit Name

OS:Space,
  {aa1a26f3-9f0a-42d3-8f5a-9cf23a21b6cf}, !- Handle
  E_Recamara2,                            !- Name
  ,                                       !- Space Type Name
  ,                                       !- Default Construction Set Name
  ,                                       !- Default Schedule Set Name
  ,                                       !- Direction of Relative North {deg}
  ,                                       !- X Origin {m}
  ,                                       !- Y Origin {m}
  ,                                       !- Z Origin {m}
  {b6e4bbe2-5846-44be-bcfa-b3c0a161acbb}, !- Building Story Name
  ,                                       !- Thermal Zone Name
  ,                                       !- Part of Total Floor Area
  ,                                       !- Design Specification Outdoor Air Object Name
  ;                                       !- Building Unit Name

OS:Space,
  {38e44f0e-8640-454f-8f61-381949d06d44}, !- Handle
  E_SalaComedor,                          !- Name
  ,                                       !- Space Type Name
  ,                                       !- Default Construction Set Name
  ,                                       !- Default Schedule Set Name
  ,                                       !- Direction of Relative North {deg}
  ,                                       !- X Origin {m}
  ,                                       !- Y Origin {m}
  ,                                       !- Z Origin {m}
  {b6e4bbe2-5846-44be-bcfa-b3c0a161acbb}, !- Building Story Name
  ,                                       !- Thermal Zone Name
  ,                                       !- Part of Total Floor Area
  ,                                       !- Design Specification Outdoor Air Object Name
  ;                                       !- Building Unit Name

OS:Surface,
  {a9ed955f-465c-46c9-aa93-f5b25e9aee02}, !- Handle
  Face 35,                                !- Name
  RoofCeiling,                            !- Surface Type
  ,                                       !- Construction Name
  {df85c30a-92e6-41f0-ad0f-0e298b751a11}, !- Space Name
  Outdoors,                               !- Outside Boundary Condition
  ,                                       !- Outside Boundary Condition Object
  SunExposed,                             !- Sun Exposure
  WindExposed,                            !- Wind Exposure
  ,                                       !- View Factor to Ground
  ,                                       !- Number of Vertices
  5.8, 6.5, 2.4384,                       !- X,Y,Z Vertex 1 {m}
  5.8, 8.7, 2.4384,                       !- X,Y,Z Vertex 2 {m}
  4.2, 8.7, 2.4384,                       !- X,Y,Z Vertex 3 {m}
  4.2, 6.5, 2.4384;                       !- X,Y,Z Vertex 4 {m}

OS:Surface,
  {b1ea47f3-a311-4465-a02a-404e6e44f9ff}, !- Handle
  Face 36,                                !- Name
  Wall,                                   !- Surface Type
  ,                                       !- Construction Name
  {df85c30a-92e6-41f0-ad0f-0e298b751a11}, !- Space Name
  Surface,                                !- Outside Boundary Condition
  {01247d19-0d2b-4989-94c4-db7c77114175}, !- Outside Boundary Condition Object
  NoSun,                                  !- Sun Exposure
  NoWind,                                 !- Wind Exposure
  ,                                       !- View Factor to Ground
  ,                                       !- Number of Vertices
  4.2, 8.7, 2.4384,                       !- X,Y,Z Vertex 1 {m}
  4.2, 8.7, 0,                            !- X,Y,Z Vertex 2 {m}
  4.2, 6.5, 0,                            !- X,Y,Z Vertex 3 {m}
  4.2, 6.5, 2.4384;                       !- X,Y,Z Vertex 4 {m}

OS:Surface,
  {a50cb1bf-d5f2-4d39-a553-6939daa8170e}, !- Handle
  Face 75,                                !- Name
  Wall,                                   !- Surface Type
  ,                                       !- Construction Name
  {df85c30a-92e6-41f0-ad0f-0e298b751a11}, !- Space Name
  Outdoors,                               !- Outside Boundary Condition
  ,                                       !- Outside Boundary Condition Object
  SunExposed,                             !- Sun Exposure
  WindExposed,                            !- Wind Exposure
  ,                                       !- View Factor to Ground
  ,                                       !- Number of Vertices
  4.2, 8.7, 2.4384,                       !- X,Y,Z Vertex 1 {m}
  5.8, 8.7, 2.4384,                       !- X,Y,Z Vertex 2 {m}
  5.8, 8.7, 0,                            !- X,Y,Z Vertex 3 {m}
  4.2, 8.7, 0;                            !- X,Y,Z Vertex 4 {m}

OS:SubSurface,
  {1a5c4219-b67c-4a77-925e-e29b78de66a9}, !- Handle
  Face 76,                                !- Name
  FixedWindow,                            !- Sub Surface Type
  ,                                       !- Construction Name
  {a50cb1bf-d5f2-4d39-a553-6939daa8170e}, !- Surface Name
  ,                                       !- Outside Boundary Condition Object
  ,                                       !- View Factor to Ground
  ,                                       !- Frame and Divider Name
  ,                                       !- Multiplier
  ,                                       !- Number of Vertices
  5.3, 8.7, 2.1,                          !- X,Y,Z Vertex 1 {m}
  5.3, 8.7, 1.5,                          !- X,Y,Z Vertex 2 {m}
  4.7, 8.7, 1.5,                          !- X,Y,Z Vertex 3 {m}
  4.7, 8.7, 2.1;                          !- X,Y,Z Vertex 4 {m}

OS:Surface,
  {af416dee-3ef2-4a38-a095-64bbd9adf704}, !- Handle
  Face 77,                                !- Name
  Wall,                                   !- Surface Type
  ,                                       !- Construction Name
  {df85c30a-92e6-41f0-ad0f-0e298b751a11}, !- Space Name
  Surface,                                !- Outside Boundary Condition
  {2cfbdd56-83ad-4287-ae94-b59e879df768}, !- Outside Boundary Condition Object
  NoSun,                                  !- Sun Exposure
  NoWind,                                 !- Wind Exposure
  ,                                       !- View Factor to Ground
  ,                                       !- Number of Vertices
  5.8, 6.5, 2.4384,                       !- X,Y,Z Vertex 1 {m}
  5.8, 6.5, 0,                            !- X,Y,Z Vertex 2 {m}
  5.8, 8.7, 0,                            !- X,Y,Z Vertex 3 {m}
  5.8, 8.7, 2.4384;                       !- X,Y,Z Vertex 4 {m}

OS:Surface,
  {adeba184-07cf-473a-a37c-6fbcc5c02b05}, !- Handle
  Face 34,                                !- Name
  Floor,                                  !- Surface Type
  ,                                       !- Construction Name
  {df85c30a-92e6-41f0-ad0f-0e298b751a11}, !- Space Name
  Ground,                                 !- Outside Boundary Condition
  ,                                       !- Outside Boundary Condition Object
  NoSun,                                  !- Sun Exposure
  NoWind,                                 !- Wind Exposure
  ,                                       !- View Factor to Ground
  ,                                       !- Number of Vertices
  4.2, 6.5, 0,                            !- X,Y,Z Vertex 1 {m}
  4.2, 8.7, 0,                            !- X,Y,Z Vertex 2 {m}
  5.8, 8.7, 0,                            !- X,Y,Z Vertex 3 {m}
  5.8, 6.5, 0;                            !- X,Y,Z Vertex 4 {m}

OS:Surface,
  {45805c04-f818-47e8-a034-092d1fb3c76f}, !- Handle
  Face 78,                                !- Name
  Wall,                                   !- Surface Type
  ,                                       !- Construction Name
  {df85c30a-92e6-41f0-ad0f-0e298b751a11}, !- Space Name
  Surface,                                !- Outside Boundary Condition
  {1d31d022-c110-41bc-8a77-d00bdbb34383}, !- Outside Boundary Condition Object
  NoSun,                                  !- Sun Exposure
  NoWind,                                 !- Wind Exposure
  ,                                       !- View Factor to Ground
  ,                                       !- Number of Vertices
  4.2, 6.5, 2.4384,                       !- X,Y,Z Vertex 1 {m}
  4.2, 6.5, 0,                            !- X,Y,Z Vertex 2 {m}
  5.8, 6.5, 0,                            !- X,Y,Z Vertex 3 {m}
  5.8, 6.5, 2.4384;                       !- X,Y,Z Vertex 4 {m}

OS:Surface,
  {6bbf7e37-f735-45a5-8a80-783d36d7db1d}, !- Handle
  Face 26,                                !- Name
  Floor,                                  !- Surface Type
  ,                                       !- Construction Name
  {e0a67a8a-f5a6-416d-adc0-41077dd0dcb3}, !- Space Name
  Ground,                                 !- Outside Boundary Condition
  ,                                       !- Outside Boundary Condition Object
  NoSun,                                  !- Sun Exposure
  NoWind,                                 !- Wind Exposure
  ,                                       !- View Factor to Ground
  ,                                       !- Number of Vertices
  1.4, 8.7, 0,                            !- X,Y,Z Vertex 1 {m}
  1.4, 5.6, 0,                            !- X,Y,Z Vertex 2 {m}
  0, 5.6, 0,                              !- X,Y,Z Vertex 3 {m}
  -1.1, 5.6, 0,                           !- X,Y,Z Vertex 4 {m}
  -1.1, 8.7, 0;                           !- X,Y,Z Vertex 5 {m}

OS:Surface,
  {70ae7f21-8461-4164-8e4e-a06046bb6ed0}, !- Handle
  Face 27,                                !- Name
  RoofCeiling,                            !- Surface Type
  ,                                       !- Construction Name
  {e0a67a8a-f5a6-416d-adc0-41077dd0dcb3}, !- Space Name
  Outdoors,                               !- Outside Boundary Condition
  ,                                       !- Outside Boundary Condition Object
  SunExposed,                             !- Sun Exposure
  WindExposed,                            !- Wind Exposure
  ,                                       !- View Factor to Ground
  ,                                       !- Number of Vertices
  -1.1, 8.7, 2.4384,                      !- X,Y,Z Vertex 1 {m}
  -1.1, 5.6, 2.4384,                      !- X,Y,Z Vertex 2 {m}
  0, 5.6, 2.4384,                         !- X,Y,Z Vertex 3 {m}
  1.4, 5.6, 2.4384,                       !- X,Y,Z Vertex 4 {m}
  1.4, 8.7, 2.4384;                       !- X,Y,Z Vertex 5 {m}

OS:Surface,
  {1d9898e6-950d-4f15-ae1b-86354a097111}, !- Handle
  Face 32,                                !- Name
  Wall,                                   !- Surface Type
  ,                                       !- Construction Name
  {e0a67a8a-f5a6-416d-adc0-41077dd0dcb3}, !- Space Name
  Outdoors,                               !- Outside Boundary Condition
  ,                                       !- Outside Boundary Condition Object
  SunExposed,                             !- Sun Exposure
  WindExposed,                            !- Wind Exposure
  ,                                       !- View Factor to Ground
  ,                                       !- Number of Vertices
  -1.1, 8.7, 2.4384,                      !- X,Y,Z Vertex 1 {m}
  1.4, 8.7, 2.4384,                       !- X,Y,Z Vertex 2 {m}
  1.4, 8.7, 0,                            !- X,Y,Z Vertex 3 {m}
  -1.1, 8.7, 0;                           !- X,Y,Z Vertex 4 {m}

OS:SubSurface,
  {e5e7f481-4db9-421d-8c15-3d8cd6600d95}, !- Handle
  Face 33,                                !- Name
  FixedWindow,                            !- Sub Surface Type
  ,                                       !- Construction Name
  {1d9898e6-950d-4f15-ae1b-86354a097111}, !- Surface Name
  ,                                       !- Outside Boundary Condition Object
  ,                                       !- View Factor to Ground
  ,                                       !- Frame and Divider Name
  ,                                       !- Multiplier
  ,                                       !- Number of Vertices
  1, 8.7, 2.1,                            !- X,Y,Z Vertex 1 {m}
  1, 8.7, 1.5,                            !- X,Y,Z Vertex 2 {m}
  0.4, 8.7, 1.5,                          !- X,Y,Z Vertex 3 {m}
  0.4, 8.7, 2.1;                          !- X,Y,Z Vertex 4 {m}

OS:Surface,
  {1ec37798-36f6-49bd-98c4-72b7e1fbca10}, !- Handle
  Face 29,                                !- Name
  Wall,                                   !- Surface Type
  ,                                       !- Construction Name
  {e0a67a8a-f5a6-416d-adc0-41077dd0dcb3}, !- Space Name
  Surface,                                !- Outside Boundary Condition
  {0785cb27-9f79-4217-8f10-1f714f9d5b8c}, !- Outside Boundary Condition Object
  NoSun,                                  !- Sun Exposure
  NoWind,                                 !- Wind Exposure
  ,                                       !- View Factor to Ground
  ,                                       !- Number of Vertices
  0, 5.6, 2.4384,                         !- X,Y,Z Vertex 1 {m}
  0, 5.6, 0,                              !- X,Y,Z Vertex 2 {m}
  1.4, 5.6, 0,                            !- X,Y,Z Vertex 3 {m}
  1.4, 5.6, 2.4384;                       !- X,Y,Z Vertex 4 {m}

OS:Surface,
  {2a3a4c46-9387-44af-8925-7abffc26d165}, !- Handle
  Face 30,                                !- Name
  Wall,                                   !- Surface Type
  ,                                       !- Construction Name
  {e0a67a8a-f5a6-416d-adc0-41077dd0dcb3}, !- Space Name
  Surface,                                !- Outside Boundary Condition
  {c68d4ab7-49ed-4e29-8e28-7cf02c72990d}, !- Outside Boundary Condition Object
  NoSun,                                  !- Sun Exposure
  NoWind,                                 !- Wind Exposure
  ,                                       !- View Factor to Ground
  ,                                       !- Number of Vertices
  -1.1, 5.6, 2.4384,                      !- X,Y,Z Vertex 1 {m}
  -1.1, 5.6, 0,                           !- X,Y,Z Vertex 2 {m}
  0, 5.6, 0,                              !- X,Y,Z Vertex 3 {m}
  0, 5.6, 2.4384;                         !- X,Y,Z Vertex 4 {m}

OS:Surface,
  {6fe53215-4192-4f4a-bbb4-d69a4b5dda8f}, !- Handle
  Face 28,                                !- Name
  Wall,                                   !- Surface Type
  ,                                       !- Construction Name
  {e0a67a8a-f5a6-416d-adc0-41077dd0dcb3}, !- Space Name
  Surface,                                !- Outside Boundary Condition
  {ca043cd7-47d3-457e-b9dc-5ee6b8cfd1ea}, !- Outside Boundary Condition Object
  NoSun,                                  !- Sun Exposure
  NoWind,                                 !- Wind Exposure
  ,                                       !- View Factor to Ground
  ,                                       !- Number of Vertices
  1.4, 5.6, 2.4384,                       !- X,Y,Z Vertex 1 {m}
  1.4, 5.6, 0,                            !- X,Y,Z Vertex 2 {m}
  1.4, 8.7, 0,                            !- X,Y,Z Vertex 3 {m}
  1.4, 8.7, 2.4384;                       !- X,Y,Z Vertex 4 {m}

OS:Surface,
  {bf216d16-e4e9-4aa5-b39f-050a65301c39}, !- Handle
  Face 31,                                !- Name
  Wall,                                   !- Surface Type
  ,                                       !- Construction Name
  {e0a67a8a-f5a6-416d-adc0-41077dd0dcb3}, !- Space Name
  Outdoors,                               !- Outside Boundary Condition
  ,                                       !- Outside Boundary Condition Object
  SunExposed,                             !- Sun Exposure
  WindExposed,                            !- Wind Exposure
  ,                                       !- View Factor to Ground
  ,                                       !- Number of Vertices
  -1.1, 5.6, 2.4384,                      !- X,Y,Z Vertex 1 {m}
  -1.1, 8.7, 2.4384,                      !- X,Y,Z Vertex 2 {m}
  -1.1, 8.7, 0,                           !- X,Y,Z Vertex 3 {m}
  -1.1, 5.6, 0;                           !- X,Y,Z Vertex 4 {m}

OS:Surface,
  {c79fa6ff-b44c-4635-a13e-591f15b61f15}, !- Handle
  Face 79,                                !- Name
  RoofCeiling,                            !- Surface Type
  ,                                       !- Construction Name
  {5f36bad4-0e29-404c-b90d-bc5412d979da}, !- Space Name
  Outdoors,                               !- Outside Boundary Condition
  ,                                       !- Outside Boundary Condition Object
  SunExposed,                             !- Sun Exposure
  WindExposed,                            !- Wind Exposure
  ,                                       !- View Factor to Ground
  ,                                       !- Number of Vertices
  6.6, 5.6, 2.4384,                       !- X,Y,Z Vertex 1 {m}
  6.6, 4.2, 2.4384,                       !- X,Y,Z Vertex 2 {m}
  8.7, 4.2, 2.4384,                       !- X,Y,Z Vertex 3 {m}
  8.8, 4.2, 2.4384,                       !- X,Y,Z Vertex 4 {m}
  8.8, 5.6, 2.4384;                       !- X,Y,Z Vertex 5 {m}

OS:Surface,
  {4bcc9625-d4f1-49c2-b24e-8500d2c3d83c}, !- Handle
  Face 80,                                !- Name
  Wall,                                   !- Surface Type
  ,                                       !- Construction Name
  {5f36bad4-0e29-404c-b90d-bc5412d979da}, !- Space Name
  Surface,                                !- Outside Boundary Condition
  {1d8b22d0-a756-4116-b4ac-116458f67d11}, !- Outside Boundary Condition Object