
OS:Version,
  {87540d0a-5b46-4091-bea5-9f0e72df5733}, !- Handle
  3.7.0;                                  !- Version Identifier

OS:Site,
  {1a03f352-20e7-4d61-8a25-72fcb5e4a109}, !- Handle
  Zacatepec,                              !- Name
  18.7,                                   !- Latitude {deg}
  -99.167,                                !- Longitude {deg}
  -6,                                     !- Time Zone {hr}
  995.8,                                  !- Elevation {m}
  ;                                       !- Terrain

OS:YearDescription,
  {ca81a232-fd80-435a-bf8e-80c9d8e86f39}, !- Handle
  ,                                       !- Calendar Year
  Sunday;                                 !- Day of Week for Start Day

OS:ClimateZones,
  {e552767a-49ae-4183-b2d6-adeb6c379d1e}, !- Handle
  ASHRAE,                                 !- Climate Zone Institution Name 1
  ANSI/ASHRAE Standard 169,               !- Climate Zone Document Name 1
  2006,                                   !- Climate Zone Document Year 1
  ,                                       !- Climate Zone Value 1
  CEC,                                    !- Climate Zone Institution Name 2
  California Climate Zone Descriptions,   !- Climate Zone Document Name 2
  1995,                                   !- Climate Zone Document Year 2
  ;                                       !- Climate Zone Value 2

OS:Building,
  {d5d89813-6108-4635-aeaa-9b6fe9a4044d}, !- Handle
  Building 1,                             !- Name
  ,                                       !- Building Sector Type
  -0,                                     !- North Axis {deg}
  ,                                       !- Nominal Floor to Floor Height {m}
  ,                                       !- Space Type Name
  {e801ef6b-7786-411a-86ab-bfd0ba6ad6e3}, !- Default Construction Set Name
  ;                                       !- Default Schedule Set Name

OS:Facility,
  {88766329-9701-4aec-a7ee-cd43fa619a79}; !- Handle

OS:SimulationControl,
  {78e94e3e-9615-48e1-b394-296174f6b77f}; !- Handle

OS:Sizing:Parameters,
  {2ee73715-aca2-4b34-bce5-8d734bb36bf0}, !- Handle
  1.25,                                   !- Heating Sizing Factor
  1.15;                                   !- Cooling Sizing Factor

OS:Timestep,
  {034700dc-d36a-499e-b462-47d97f87f73a}, !- Handle
  6;                                      !- Number of Timesteps per Hour

OS:ShadowCalculation,
  {c12030a5-f48c-4a77-9223-489e70b1fc88}, !- Handle
  PolygonClipping,                        !- Shading Calculation Method
  ,                                       !- Shading Calculation Update Frequency Method
  20,                                     !- Shading Calculation Update Frequency
  15000,                                  !- Maximum Figures in Shadow Overlap Calculations
  ,                                       !- Polygon Clipping Algorithm
  512,                                    !- Pixel Counting Resolution
  ,                                       !- Sky Diffuse Modeling Algorithm
  No,                                     !- Output External Shading Calculation Results
  No,                                     !- Disable Self-Shading Within Shading Zone Groups
  No;                                     !- Disable Self-Shading From Shading Zone Groups to Other Zones

OS:HeatBalanceAlgorithm,
  {01a386fd-f1e2-4d06-8ce5-756aa098ac85}, !- Handle
  ConductionTransferFunction,             !- Algorithm
  200;                                    !- Surface Temperature Upper Limit {C}

OS:RunPeriod,
  {434ee10f-9633-4885-92b8-579b3aea6a63}, !- Handle
  Run Period 1,                           !- Name
  1,                                      !- Begin Month
  1,                                      !- Begin Day of Month
  12,                                     !- End Month
  31,                                     !- End Day of Month
  ,                                       !- Use Weather File Holidays and Special Days
  ,                                       !- Use Weather File Daylight Saving Period
  ,                                       !- Apply Weekend Holiday Rule
  ,                                       !- Use Weather File Rain Indicators
  ,                                       !- Use Weather File Snow Indicators
  ;                                       !- Number of Times Runperiod to be Repeated

OS:LifeCycleCost:Parameters,
  {cfbb3f8b-eedd-4e70-8af5-371457d3bf14}, !- Handle
  ,                                       !- Analysis Type
  ,                                       !- Discounting Convention
  ,                                       !- Inflation Approach
  ,                                       !- Real Discount Rate
  ,                                       !- Nominal Discount Rate
  ,                                       !- Inflation
  ,                                       !- Base Date Month
  ,                                       !- Base Date Year
  ,                                       !- Service Date Month
  ,                                       !- Service Date Year
  ;                                       !- Length of Study Period in Years

OS:Space,
  {df85c30a-92e6-41f0-ad0f-0e298b751a11}, !- Handle
  E_Banio,                                !- Name
  ,                                       !- Space Type Name
  ,                                       !- Default Construction Set Name
  ,                                       !- Default Schedule Set Name
  ,                                       !- Direction of Relative North {deg}
  ,                                       !- X Origin {m}
  ,                                       !- Y Origin {m}
  ,                                       !- Z Origin {m}
  {b6e4bbe2-5846-44be-bcfa-b3c0a161acbb}, !- Building Story Name
  {27d1ac57-bc3a-4988-b2aa-a7e351b6c5ab}, !- Thermal Zone Name
  ,                                       !- Part of Total Floor Area
  ,                                       !- Design Specification Outdoor Air Object Name
  ;                                       !- Building Unit Name

OS:BuildingStory,
  {b6e4bbe2-5846-44be-bcfa-b3c0a161acbb}, !- Handle
  Story 1,                                !- Name
  0,                                      !- Nominal Z Coordinate {m}
  2.4384,                                 !- Nominal Floor to Floor Height {m}
  ,                                       !- Default Construction Set Name
  ,                                       !- Default Schedule Set Name
  {45a830c9-78cb-4dfb-a410-9df7c213c6b2}, !- Group Rendering Name
  2.4384;                                 !- Nominal Floor to Ceiling Height {m}

OS:Rendering:Color,
  {45a830c9-78cb-4dfb-a410-9df7c213c6b2}, !- Handle
  Rendering Color 1,                      !- Name
  51,                                     !- Rendering Red Value
  34,                                     !- Rendering Green Value
  136,                                    !- Rendering Blue Value
  255;                                    !- Rendering Alpha Value

OS:Space,
  {e0a67a8a-f5a6-416d-adc0-41077dd0dcb3}, !- Handle
  E_Cocina,                               !- Name
  ,                                       !- Space Type Name
  ,                                       !- Default Construction Set Name
  ,                                       !- Default Schedule Set Name
  ,                                       !- Direction of Relative North {deg}
  ,                                       !- X Origin {m}
  ,                                       !- Y Origin {m}
  ,                                       !- Z Origin {m}
  {b6e4bbe2-5846-44be-bcfa-b3c0a161acbb}, !- Building Story Name
  {92cc2002-8c15-45c1-89e8-1e85d4b4d416}, !- Thermal Zone Name
  ,                                       !- Part of Total Floor Area
  ,                                       !- Design Specification Outdoor Air Object Name
  ;                                       !- Building Unit Name

OS:Space,
  {ad6dc674-554f-4615-820a-6e6e34d9d07f}, !- Handle
  E_Recamara3,                            !- Name
  ,                                       !- Space Type Name
  ,                                       !- Default Construction Set Name
  ,                                       !- Default Schedule Set Name
  ,                                       !- Direction of Relative North {deg}
  ,                                       !- X Origin {m}
  ,                                       !- Y Origin {m}
  ,                                       !- Z Origin {m}
  {b6e4bbe2-5846-44be-bcfa-b3c0a161acbb}, !- Building Story Name
  {955ab072-a91c-4abb-9dcc-be9fc285cffa}, !- Thermal Zone Name
  ,                                       !- Part of Total Floor Area
  ,                                       !- Design Specification Outdoor Air Object Name
  ;                                       !- Building Unit Name

OS:Space,
  {5f36bad4-0e29-404c-b90d-bc5412d979da}, !- Handle
  E_Banio2,                               !- Name
  ,                                       !- Space Type Name
  ,                                       !- Default Construction Set Name
  ,                                       !- Default Schedule Set Name
  ,                                       !- Direction of Relative North {deg}
  ,                                       !- X Origin {m}
  ,                                       !- Y Origin {m}
  ,                                       !- Z Origin {m}
  {b6e4bbe2-5846-44be-bcfa-b3c0a161acbb}, !- Building Story Name
  {ec769c09-3100-4f76-b219-4f6c7755aae3}, !- Thermal Zone Name
  ,                                       !- Part of Total Floor Area
  ,                                       !- Design Specification Outdoor Air Object Name
  ;                                       !- Building Unit Name

OS:Space,
  {5c48e89e-bab6-47c9-9596-0433f2b221c6}, !- Handle
  E_Closet,                               !- Name
  ,                                       !- Space Type Name
  ,                                       !- Default Construction Set Name
  ,                                       !- Default Schedule Set Name
  ,                                       !- Direction of Relative North {deg}
  ,                                       !- X Origin {m}
  ,                                       !- Y Origin {m}
  ,                                       !- Z Origin {m}
  {b6e4bbe2-5846-44be-bcfa-b3c0a161acbb}, !- Building Story Name
  {1a965d59-0eb1-407c-9937-09bb18a1d9d6}, !- Thermal Zone Name
  ,                                       !- Part of Total Floor Area
  ,                                       !- Design Specification Outdoor Air Object Name
  ;                                       !- Building Unit Name

OS:Space,
  {87bb470d-305e-491e-9814-4266336c86ef}, !- Handle
  E_Escaleras,                            !- Name
  ,                                       !- Space Type Name
  ,                                       !- Default Construction Set Name
  ,                                       !- Default Schedule Set Name
  ,                                       !- Direction of Relative North {deg}
  ,                                       !- X Origin {m}
  ,                                       !- Y Origin {m}
  ,                                       !- Z Origin {m}
  {b6e4bbe2-5846-44be-bcfa-b3c0a161acbb}, !- Building Story Name
  {b028a990-d11f-47cc-bde8-51d4055dfb75}, !- Thermal Zone Name
  ,                                       !- Part of Total Floor Area
  ,                                       !- Design Specification Outdoor Air Object Name
  ;                                       !- Building Unit Name

OS:Space,
  {d4bf2245-405c-4c6b-87b0-ea01a2829223}, !- Handle
  E_RPrincipal,                           !- Name
  ,                                       !- Space Type Name
  ,                                       !- Default Construction Set Name
  ,                                       !- Default Schedule Set Name
  ,                                       !- Direction of Relative North {deg}
  ,                                       !- X Origin {m}
  ,                                       !- Y Origin {m}
  ,                                       !- Z Origin {m}
  {b6e4bbe2-5846-44be-bcfa-b3c0a161acbb}, !- Building Story Name
  {9838fcd7-9db5-4ad7-86c6-c240062fc35f}, !- Thermal Zone Name
  ,                                       !- Part of Total Floor Area
  ,                                       !- Design Specification Outdoor Air Object Name
  ;                                       !- Building Unit Name

OS:Space,
  {aa1a26f3-9f0a-42d3-8f5a-9cf23a21b6cf}, !- Handle
  E_Recamara2,                            !- Name
  ,                                       !- Space Type Name
  ,                                       !- Default Construction Set Name
  ,                                       !- Default Schedule Set Name
  ,                                       !- Direction of Relative North {deg}
  ,                                       !- X Origin {m}
  ,                                       !- Y Origin {m}
  ,                                       !- Z Origin {m}
  {b6e4bbe2-5846-44be-bcfa-b3c0a161acbb}, !- Building Story Name
  {7267621f-fa6f-4485-83ec-11da0fb11939}, !- Thermal Zone Name
  ,                                       !- Part of Total Floor Area
  ,                                       !- Design Specification Outdoor Air Object Name
  ;                                       !- Building Unit Name

OS:Space,
  {38e44f0e-8640-454f-8f61-381949d06d44}, !- Handle
  E_SalaComedor,                          !- Name
  ,                                       !- Space Type Name
  ,                                       !- Default Construction Set Name
  ,                                       !- Default Schedule Set Name
  ,                                       !- Direction of Relative North {deg}
  ,                                       !- X Origin {m}
  ,                                       !- Y Origin {m}
  ,                                       !- Z Origin {m}
  {b6e4bbe2-5846-44be-bcfa-b3c0a161acbb}, !- Building Story Name
  {011277e3-115f-495f-9489-a7061ae83e0b}, !- Thermal Zone Name
  ,                                       !- Part of Total Floor Area
  ,                                       !- Design Specification Outdoor Air Object Name
  ;                                       !- Building Unit Name

OS:Surface,
  {de697b2d-3507-4d84-818a-be33ead59764}, !- Handle
  Face 103,                               !- Name
  Floor,                                  !- Surface Type
  ,                                       !- Construction Name
  {5f36bad4-0e29-404c-b90d-bc5412d979da}, !- Space Name
  Ground,                                 !- Outside Boundary Condition
  ,                                       !- Outside Boundary Condition Object
  NoSun,                                  !- Sun Exposure
  NoWind,                                 !- Wind Exposure
  ,                                       !- View Factor to Ground
  ,                                       !- Number of Vertices
  8.8, 5.6, 0,                            !- X,Y,Z Vertex 1 {m}
  8.8, 4.2, 0,                            !- X,Y,Z Vertex 2 {m}
  8.7, 4.2, 0,                            !- X,Y,Z Vertex 3 {m}
  6.6, 4.2, 0,                            !- X,Y,Z Vertex 4 {m}
  6.6, 5.6, 0;                            !- X,Y,Z Vertex 5 {m}

OS:Surface,
  {87f1cf7d-e640-41e3-8d0c-3397e5b9da60}, !- Handle
  Face 104,                               !- Name
  RoofCeiling,                            !- Surface Type
  ,                                       !- Construction Name
  {5f36bad4-0e29-404c-b90d-bc5412d979da}, !- Space Name
  Outdoors,                               !- Outside Boundary Condition
  ,                                       !- Outside Boundary Condition Object
  SunExposed,                             !- Sun Exposure
  WindExposed,                            !- Wind Exposure
  ,                                       !- View Factor to Ground
  ,                                       !- Number of Vertices
  6.6, 5.6, 2.4384,                       !- X,Y,Z Vertex 1 {m}
  6.6, 4.2, 2.4384,                       !- X,Y,Z Vertex 2 {m}
  8.7, 4.2, 2.4384,                       !- X,Y,Z Vertex 3 {m}
  8.8, 4.2, 2.4384,                       !- X,Y,Z Vertex 4 {m}
  8.8, 5.6, 2.4384;                       !- X,Y,Z Vertex 5 {m}

OS:Surface,
  {7fbc640f-f936-431a-953f-0580212fd68e}, !- Handle
  Face 69,                                !- Name
  Wall,                                   !- Surface Type
  ,                                       !- Construction Name
  {5f36bad4-0e29-404c-b90d-bc5412d979da}, !- Space Name
  Surface,                                !- Outside Boundary Condition
  {dcc819bd-6e9e-4a05-9479-7b97b1e6ffc7}, !- Outside Boundary Condition Object
  NoSun,                                  !- Sun Exposure
  NoWind,                                 !- Wind Exposure
  ,                                       !- View Factor to Ground
  ,                                       !- Number of Vertices
  6.6, 4.2, 2.4384,                       !- X,Y,Z Vertex 1 {m}
  6.6, 5.6, 2.4384,                       !- X,Y,Z Vertex 2 {m}
  6.6, 5.6, 0,                            !- X,Y,Z Vertex 3 {m}
  6.6, 4.2, 0;                            !- X,Y,Z Vertex 4 {m}

OS:Surface,
  {77263e6f-a49b-4a9c-9c62-3a361f6fe1aa}, !- Handle
  Face 105,                               !- Name
  Wall,                                   !- Surface Type
  ,                                       !- Construction Name
  {5f36bad4-0e29-404c-b90d-bc5412d979da}, !- Space Name
  Surface,                                !- Outside Boundary Condition
  {c30b1c70-d370-48ba-a42e-fd1f63c67572}, !- Outside Boundary Condition Object
  NoSun,                                  !- Sun Exposure
  NoWind,                                 !- Wind Exposure
  ,                                       !- View Factor to Ground
  ,                                       !- Number of Vertices
  8.7, 4.2, 2.4384,                       !- X,Y,Z Vertex 1 {m}
  8.7, 4.2, 0,                            !- X,Y,Z Vertex 2 {m}
  8.8, 4.2, 0,                            !- X,Y,Z Vertex 3 {m}
  8.8, 4.2, 2.4384;                       !- X,Y,Z Vertex 4 {m}

OS:Surface,
  {e407aa9d-b0cb-417a-aa2b-226c85ab4595}, !- Handle
  Face 71,                                !- Name
  Wall,                                   !- Surface Type
  ,                                       !- Construction Name
  {5f36bad4-0e29-404c-b90d-bc5412d979da}, !- Space Name
  Surface,                                !- Outside Boundary Condition
  {b3486be0-ae33-454a-b87f-bd0f4763d5b8}, !- Outside Boundary Condition Object
  NoSun,                                  !- Sun Exposure
  NoWind,                                 !- Wind Exposure
  ,                                       !- View Factor to Ground
  ,                                       !- Number of Vertices
  8.8, 5.6, 2.4384,                       !- X,Y,Z Vertex 1 {m}
  8.8, 5.6, 0,                            !- X,Y,Z Vertex 2 {m}
  6.6, 5.6, 0,                            !- X,Y,Z Vertex 3 {m}
  6.6, 5.6, 2.4384;                       !- X,Y,Z Vertex 4 {m}

OS:Surface,
  {06596b3b-c389-485f-a12a-5083c653c6e3}, !- Handle
  Face 106,                               !- Name
  Wall,                                   !- Surface Type
  ,                                       !- Construction Name
  {5f36bad4-0e29-404c-b90d-bc5412d979da}, !- Space Name
  Outdoors,                               !- Outside Boundary Condition
  ,                                       !- Outside Boundary Condition Object
  SunExposed,                             !- Sun Exposure
  WindExposed,                            !- Wind Exposure
  ,                                       !- View Factor to Ground
  ,                                       !- Number of Vertices
  8.8, 5.6, 2.4384,                       !- X,Y,Z Vertex 1 {m}
  8.8, 4.2, 2.4384,                       !- X,Y,Z Vertex 2 {m}
  8.8, 4.2, 0,                            !- X,Y,Z Vertex 3 {m}
  8.8, 5.6, 0;                            !- X,Y,Z Vertex 4 {m}

OS:SubSurface,
  {a1039334-86da-4ce4-9c80-b706ad4e0f42}, !- Handle
  Face 107,                               !- Name
  FixedWindow,                            !- Sub Surface Type
  ,                                       !- Construction Name
  {06596b3b-c389-485f-a12a-5083c653c6e3}, !- Surface Name
  ,                                       !- Outside Boundary Condition Object
  ,                                       !- View Factor to Ground
  ,                                       !- Frame and Divider Name
  ,                                       !- Multiplier
  ,                                       !- Number of Vertices
  8.8, 4.5, 2.1,                          !- X,Y,Z Vertex 1 {m}
  8.8, 4.5, 1.5,                          !- X,Y,Z Vertex 2 {m}
  8.8, 5.1, 1.5,                          !- X,Y,Z Vertex 3 {m}
  8.8, 5.1, 2.1;                          !- X,Y,Z Vertex 4 {m}

OS:Surface,
  {cd92d8a0-a572-4338-bfb5-9170209aadb5}, !- Handle
  Face 68,                                !- Name
  Wall,                                   !- Surface Type
  ,                                       !- Construction Name
  {5f36bad4-0e29-404c-b90d-bc5412d979da}, !- Space Name
  Surface,                                !- Outside Boundary Condition
  {e0ddaf68-0545-4dff-a591-174735694c11}, !- Outside Boundary Condition Object
  NoSun,                                  !- Sun Exposure
  NoWind,                                 !- Wind Exposure
  ,                                       !- View Factor to Ground
  ,                                       !- Number of Vertices
  6.6, 4.2, 2.4384,                       !- X,Y,Z Vertex 1 {m}
  6.6, 4.2, 0,                            !- X,Y,Z Vertex 2 {m}
  8.7, 4.2, 0,                            !- X,Y,Z Vertex 3 {m}
  8.7, 4.2, 2.4384;                       !- X,Y,Z Vertex 4 {m}

OS:Surface,
  {0e38beb3-a03b-4280-889a-84c9d9450e44}, !- Handle
  Face 108,                               !- Name
  RoofCeiling,                            !- Surface Type
  ,                                       !- Construction Name
  {df85c30a-92e6-41f0-ad0f-0e298b751a11}, !- Space Name
  Outdoors,                               !- Outside Boundary Condition
  ,                                       !- Outside Boundary Condition Object
  SunExposed,                             !- Sun Exposure
  WindExposed,                            !- Wind Exposure
  ,                                       !- View Factor to Ground
  ,                                       !- Number of Vertices
  5.8, 6.5, 2.4384,                       !- X,Y,Z Vertex 1 {m}
  5.8, 8.7, 2.4384,                       !- X,Y,Z Vertex 2 {m}
  4.2, 8.7, 2.4384,                       !- X,Y,Z Vertex 3 {m}
  4.2, 6.5, 2.4384;                       !- X,Y,Z Vertex 4 {m}

OS:Surface,
  {f0580dd5-5fec-45e9-98c7-7aebd1c46b0c}, !- Handle
  Face 109,                               !- Name
  Wall,                                   !- Surface Type
  ,                                       !- Construction Name
  {df85c30a-92e6-41f0-ad0f-0e298b751a11}, !- Space Name
  Outdoors,                               !- Outside Boundary Condition
  ,                                       !- Outside Boundary Condition Object
  SunExposed,                             !- Sun Exposure
  WindExposed,                            !- Wind Exposure
  ,                                       !- View Factor to Ground
  ,                                       !- Number of Vertices
  4.2, 8.7, 2.4384,                       !- X,Y,Z Vertex 1 {m}
  5.8, 8.7, 2.4384,                       !- X,Y,Z Vertex 2 {m}
  5.8, 8.7, 0,                            !- X,Y,Z Vertex 3 {m}
  4.2, 8.7, 0;                            !- X,Y,Z Vertex 4 {m}

OS:SubSurface,
  {6450fbe6-2f30-49a9-9f68-0bddb033fece}, !- Handle
  Face 110,                               !- Name
  FixedWindow,                            !- Sub Surface Type
  ,                                       !- Construction Name
  {f0580dd5-5fec-45e9-98c7-7aebd1c46b0c}, !- Surface Name
  ,                                       !- Outside Boundary Condition Object
  ,                                       !- View Factor to Ground
  ,                                       !- Frame and Divider Name
  ,                                       !- Multiplier
  ,                                       !- Number of Vertices
  5.3, 8.7, 2.1,                          !- X,Y,Z Vertex 1 {m}
  5.3, 8.7, 1.5,                          !- X,Y,Z Vertex 2 {m}
  4.7, 8.7, 1.5,                          !- X,Y,Z Vertex 3 {m}
  4.7, 8.7, 2.1;                          !- X,Y,Z Vertex 4 {m}

OS:Surface,
  {8d4c35e7-6754-4b69-93a9-4a54274417f3}, !- Handle
  Face 111,                               !- Name
  Wall,                                   !- Surface Type
  ,                                       !- Construction Name
  {df85c30a-92e6-41f0-ad0f-0e298b751a11}, !- Space Name
  Surface,                                !- Outside Boundary Condition
  {cfba31d1-b4cf-4b46-b5b5-7edec5b754ef}, !- Outside Boundary Condition Object
  NoSun,                                  !- Sun Exposure
  NoWind,                                 !- Wind Exposure
  ,                                       !- View Factor to Ground
  ,                                       !- Number of Vertices
  4.2, 8.7, 2.4384,                       !- X,Y,Z Vertex 1 {m}
  4.2, 8.7, 0,                            !- X,Y,Z Vertex 2 {m}
  4.2, 6.5, 0,                            !- X,Y,Z Vertex 3 {m}
  4.2, 6.5, 2.4384;                       !- X,Y,Z Vertex 4 {m}

OS:Surface,
  {02df95b4-3341-415c-94b7-63c85678d94e}, !- Handle
  Face 112,                               !- Name
  Wall,                                   !- Surface Type
  ,                                       !- Construction Name
  {df85c30a-92e6-41f0-ad0f-0e298b751a11}, !- Space Name
  Surface,                                !- Outside Boundary Condition
  {52ac0edd-5e00-46c5-8cc8-e466e6427c95}, !- Outside Boundary Condition Object
  NoSun,                                  !- Sun Exposure
  NoWind,                                 !- Wind Exposure
  ,                                       !- View Factor to Ground
  ,                                       !- Number of Vertices
  4.2, 6.5, 2.4384,                       !- X,Y,Z Vertex 1 {m}
  4.2, 6.5, 0,                            !- X,Y,Z Vertex 2 {m}
  5.8, 6.5, 0,                            !- X,Y,Z Vertex 3 {m}
  5.8, 6.5, 2.4384;                       !- X,Y,Z Vertex 4 {m}

OS:Surface,
  {51b8b4ef-fcc9-4b12-9e67-0052f84057ca}, !- Handle
  Face 113,                               !- Name
  Wall,                                   !- Surface Type
  ,                                       !- Construction Name
  {df85c30a-92e6-41f0-ad0f-0e298b751a11}, !- Space Name
  Surface,                                !- Outside Boundary Condition
  {64d2f2da-f4d8-47fb-9bc3-99d2f036e825}, !- Outside Boundary Condition Object
  NoSun,                                  !- Sun Exposure
  NoWind,                                 !- Wind Exposure
  ,                                       !- View Factor to Ground
  ,                                       !- Number of Vertices
  5.8, 8.7, 2.4384,                       !- X,Y,Z Vertex 1 {m}
  5.8, 6.5, 2.4384,                       !- X,Y,Z Vertex 2 {m}
  5.8, 6.5, 0,                            !- X,Y,Z Vertex 3 {m}
  5.8, 8.7, 0;                            !- X,Y,Z Vertex 4 {m}

OS:Surface,
  {d40289ef-bc3c-45ed-bdaf-f4ac1036e8db}, !- Handle
  Face 115,                               !- Name
  Floor,                                  !- Surface Type
  ,                                       !- Construction Name
  {df85c30a-92e6-41f0-ad0f-0e298b751a11}, !- Space Name
  Ground,                                 !- Outside Boundary Condition
  ,                                       !- Outside Boundary Condition Object
  NoSun,                                  !- Sun Exposure
  NoWind,                                 !- Wind Exposure
  ,                                       !- View Factor to Ground
  ,                                       !- Number of Vertices
  4.2, 6.5, 0,                            !- X,Y,Z Vertex 1 {m}
  4.2, 8.7, 0,                            !- X,Y,Z Vertex 2 {m}
  5.8, 8.7, 0,                            !- X,Y,Z Vertex 3 {m}
  5.8, 6.5, 0;                            !- X,Y,Z Vertex 4 {m}

OS:Surface,
  {cfba31d1-b4cf-4b46-b5b5-7edec5b754ef}, !- Handle
  Face 9,                                 !- Name
  Wall,                                   !- Surface Type
  ,                                       !- Construction Name
  {38e44f0e-8640-454f-8f61-381949d06d44}, !- Space Name
  Surface,                                !- Outside Boundary Condition
  {8d4c35e7-6754-4b69-93a9-4a54274417f3}, !- Outside Boundary Condition Object
  NoSun,                                  !- Sun Exposure
  NoWind,                                 !- Wind Exposure
  ,                                       !- View Factor to Ground
  ,                                       !- Number of Vertices
  4.2, 6.5, 2.4384,                       !- X,Y,Z Vertex 1 {m}
  4.2, 6.5, 0,                            !- X,Y,Z Vertex 2 {m}
  4.2, 8.7, 0,                            !- X,Y,Z Vertex 3 {m}
  4.2, 8.7, 2.4384;                       !- X,Y,Z Vertex 4 {m}

OS:Surface,
  {c67b9118-8efa-42c8-a2f2-4d692cc7a18d}, !- Handle
  Face 1,                                 !- Name
  RoofCeiling,                            !- Surface Type
  ,                                       !- Construction Name
  {38e44f0e-8640-454f-8f61-381949d06d44}, !- Space Name
  Outdoors,                               !- Outside Boundary Condition