
OS:Version,
  {87540d0a-5b46-4091-bea5-9f0e72df5733}, !- Handle
  3.7.0;                                  !- Version Identifier

OS:Site,
  {1a03f352-20e7-4d61-8a25-72fcb5e4a109}, !- Handle
  Zacatepec,                              !- Name
  39.7653,                                !- Latitude {deg}
  39.7653,                                !- Longitude {deg}
  -6,                                     !- Time Zone {hr}
  995.8,                                  !- Elevation {m}
  ;                                       !- Terrain

OS:YearDescription,
  {ca81a232-fd80-435a-bf8e-80c9d8e86f39}, !- Handle
  ,                                       !- Calendar Year
  Sunday;                                 !- Day of Week for Start Day

OS:ClimateZones,
  {e552767a-49ae-4183-b2d6-adeb6c379d1e}, !- Handle
  ASHRAE,                                 !- Climate Zone Institution Name 1
  ANSI/ASHRAE Standard 169,               !- Climate Zone Document Name 1
  2006,                                   !- Climate Zone Document Year 1
  ,                                       !- Climate Zone Value 1
  CEC,                                    !- Climate Zone Institution Name 2
  California Climate Zone Descriptions,   !- Climate Zone Document Name 2
  1995,                                   !- Climate Zone Document Year 2
  ;                                       !- Climate Zone Value 2

OS:Building,
  {d5d89813-6108-4635-aeaa-9b6fe9a4044d}, !- Handle
  Building 1,                             !- Name
  ,                                       !- Building Sector Type
  -0,                                     !- North Axis {deg}
  ,                                       !- Nominal Floor to Floor Height {m}
  ,                                       !- Space Type Name
  {e801ef6b-7786-411a-86ab-bfd0ba6ad6e3}, !- Default Construction Set Name
  ;                                       !- Default Schedule Set Name

OS:Facility,
  {88766329-9701-4aec-a7ee-cd43fa619a79}; !- Handle

OS:SimulationControl,
  {78e94e3e-9615-48e1-b394-296174f6b77f}; !- Handle

OS:Sizing:Parameters,
  {2ee73715-aca2-4b34-bce5-8d734bb36bf0}, !- Handle
  1.25,                                   !- Heating Sizing Factor
  1.15;                                   !- Cooling Sizing Factor

OS:Timestep,
  {034700dc-d36a-499e-b462-47d97f87f73a}, !- Handle
  6;                                      !- Number of Timesteps per Hour

OS:ShadowCalculation,
  {c12030a5-f48c-4a77-9223-489e70b1fc88}, !- Handle
  PolygonClipping,                        !- Shading Calculation Method
  ,                                       !- Shading Calculation Update Frequency Method
  20,                                     !- Shading Calculation Update Frequency
  15000,                                  !- Maximum Figures in Shadow Overlap Calculations
  ,                                       !- Polygon Clipping Algorithm
  512,                                    !- Pixel Counting Resolution
  ,                                       !- Sky Diffuse Modeling Algorithm
  No,                                     !- Output External Shading Calculation Results
  No,                                     !- Disable Self-Shading Within Shading Zone Groups
  No;                                     !- Disable Self-Shading From Shading Zone Groups to Other Zones

OS:HeatBalanceAlgorithm,
  {01a386fd-f1e2-4d06-8ce5-756aa098ac85}, !- Handle
  ConductionTransferFunction,             !- Algorithm
  200;                                    !- Surface Temperature Upper Limit {C}

OS:RunPeriod,
  {434ee10f-9633-4885-92b8-579b3aea6a63}, !- Handle
  Run Period 1,                           !- Name
  1,                                      !- Begin Month
  1,                                      !- Begin Day of Month
  12,                                     !- End Month
  31,                                     !- End Day of Month
  ,                                       !- Use Weather File Holidays and Special Days
  ,                                       !- Use Weather File Daylight Saving Period
  ,                                       !- Apply Weekend Holiday Rule
  ,                                       !- Use Weather File Rain Indicators
  ,                                       !- Use Weather File Snow Indicators
  ;                                       !- Number of Times Runperiod to be Repeated

OS:LifeCycleCost:Parameters,
  {cfbb3f8b-eedd-4e70-8af5-371457d3bf14}, !- Handle
  ,                                       !- Analysis Type
  ,                                       !- Discounting Convention
  ,                                       !- Inflation Approach
  ,                                       !- Real Discount Rate
  ,                                       !- Nominal Discount Rate
  ,                                       !- Inflation
  ,                                       !- Base Date Month
  ,                                       !- Base Date Year
  ,                                       !- Service Date Month
  ,                                       !- Service Date Year
  ;                                       !- Length of Study Period in Years

OS:Space,
  {df85c30a-92e6-41f0-ad0f-0e298b751a11}, !- Handle
  E_Banio,                                !- Name
  ,                                       !- Space Type Name
  ,                                       !- Default Construction Set Name
  ,                                       !- Default Schedule Set Name
  ,                                       !- Direction of Relative North {deg}
  ,                                       !- X Origin {m}
  ,                                       !- Y Origin {m}
  ,                                       !- Z Origin {m}
  {b6e4bbe2-5846-44be-bcfa-b3c0a161acbb}, !- Building Story Name
  {27d1ac57-bc3a-4988-b2aa-a7e351b6c5ab}, !- Thermal Zone Name
  ,                                       !- Part of Total Floor Area
  ,                                       !- Design Specification Outdoor Air Object Name
  ;                                       !- Building Unit Name

OS:BuildingStory,
  {b6e4bbe2-5846-44be-bcfa-b3c0a161acbb}, !- Handle
  Story 1,                                !- Name
  0,                                      !- Nominal Z Coordinate {m}
  2.4384,                                 !- Nominal Floor to Floor Height {m}
  ,                                       !- Default Construction Set Name
  ,                                       !- Default Schedule Set Name
  {45a830c9-78cb-4dfb-a410-9df7c213c6b2}, !- Group Rendering Name
  2.4384;                                 !- Nominal Floor to Ceiling Height {m}

OS:Rendering:Color,
  {45a830c9-78cb-4dfb-a410-9df7c213c6b2}, !- Handle
  Rendering Color 1,                      !- Name
  51,                                     !- Rendering Red Value
  34,                                     !- Rendering Green Value
  136,                                    !- Rendering Blue Value
  255;                                    !- Rendering Alpha Value

OS:Space,
  {e0a67a8a-f5a6-416d-adc0-41077dd0dcb3}, !- Handle
  E_Cocina,                               !- Name
  ,                                       !- Space Type Name
  ,                                       !- Default Construction Set Name
  ,                                       !- Default Schedule Set Name
  ,                                       !- Direction of Relative North {deg}
  ,                                       !- X Origin {m}
  ,                                       !- Y Origin {m}
  ,                                       !- Z Origin {m}
  {b6e4bbe2-5846-44be-bcfa-b3c0a161acbb}, !- Building Story Name
  {92cc2002-8c15-45c1-89e8-1e85d4b4d416}, !- Thermal Zone Name
  ,                                       !- Part of Total Floor Area
  ,                                       !- Design Specification Outdoor Air Object Name
  ;                                       !- Building Unit Name

OS:Space,
  {ad6dc674-554f-4615-820a-6e6e34d9d07f}, !- Handle
  E_Recamara3,                            !- Name
  ,                                       !- Space Type Name
  ,                                       !- Default Construction Set Name
  ,                                       !- Default Schedule Set Name
  ,                                       !- Direction of Relative North {deg}
  ,                                       !- X Origin {m}
  ,                                       !- Y Origin {m}
  ,                                       !- Z Origin {m}
  {b6e4bbe2-5846-44be-bcfa-b3c0a161acbb}, !- Building Story Name
  {955ab072-a91c-4abb-9dcc-be9fc285cffa}, !- Thermal Zone Name
  ,                                       !- Part of Total Floor Area
  ,                                       !- Design Specification Outdoor Air Object Name
  ;                                       !- Building Unit Name

OS:Space,
  {5f36bad4-0e29-404c-b90d-bc5412d979da}, !- Handle
  E_Banio2,                               !- Name
  ,                                       !- Space Type Name
  ,                                       !- Default Construction Set Name
  ,                                       !- Default Schedule Set Name
  ,                                       !- Direction of Relative North {deg}
  ,                                       !- X Origin {m}
  ,                                       !- Y Origin {m}
  ,                                       !- Z Origin {m}
  {b6e4bbe2-5846-44be-bcfa-b3c0a161acbb}, !- Building Story Name
  {ec769c09-3100-4f76-b219-4f6c7755aae3}, !- Thermal Zone Name
  ,                                       !- Part of Total Floor Area
  ,                                       !- Design Specification Outdoor Air Object Name
  ;                                       !- Building Unit Name

OS:Space,
  {5c48e89e-bab6-47c9-9596-0433f2b221c6}, !- Handle
  E_Closet,                               !- Name
  ,                                       !- Space Type Name
  ,                                       !- Default Construction Set Name
  ,                                       !- Default Schedule Set Name
  ,                                       !- Direction of Relative North {deg}
  ,                                       !- X Origin {m}
  ,                                       !- Y Origin {m}
  ,                                       !- Z Origin {m}
  {b6e4bbe2-5846-44be-bcfa-b3c0a161acbb}, !- Building Story Name
  {1a965d59-0eb1-407c-9937-09bb18a1d9d6}, !- Thermal Zone Name
  ,                                       !- Part of Total Floor Area
  ,                                       !- Design Specification Outdoor Air Object Name
  ;                                       !- Building Unit Name

OS:Space,
  {87bb470d-305e-491e-9814-4266336c86ef}, !- Handle
  E_Escaleras,                            !- Name
  ,                                       !- Space Type Name
  ,                                       !- Default Construction Set Name
  ,                                       !- Default Schedule Set Name
  ,                                       !- Direction of Relative North {deg}
  ,                                       !- X Origin {m}
  ,                                       !- Y Origin {m}
  ,                                       !- Z Origin {m}
  {b6e4bbe2-5846-44be-bcfa-b3c0a161acbb}, !- Building Story Name
  {b028a990-d11f-47cc-bde8-51d4055dfb75}, !- Thermal Zone Name
  ,                                       !- Part of Total Floor Area
  ,                                       !- Design Specification Outdoor Air Object Name
  ;                                       !- Building Unit Name

OS:Space,
  {d4bf2245-405c-4c6b-87b0-ea01a2829223}, !- Handle
  E_RPrincipal,                           !- Name
  ,                                       !- Space Type Name
  ,                                       !- Default Construction Set Name
  ,                                       !- Default Schedule Set Name
  ,                                       !- Direction of Relative North {deg}
  ,                                       !- X Origin {m}
  ,                                       !- Y Origin {m}
  ,                                       !- Z Origin {m}
  {b6e4bbe2-5846-44be-bcfa-b3c0a161acbb}, !- Building Story Name
  {9838fcd7-9db5-4ad7-86c6-c240062fc35f}, !- Thermal Zone Name
  ,                                       !- Part of Total Floor Area
  ,                                       !- Design Specification Outdoor Air Object Name
  ;                                       !- Building Unit Name

OS:Space,
  {aa1a26f3-9f0a-42d3-8f5a-9cf23a21b6cf}, !- Handle
  E_Recamara2,                            !- Name
  ,                                       !- Space Type Name
  ,                                       !- Default Construction Set Name
  ,                                       !- Default Schedule Set Name
  ,                                       !- Direction of Relative North {deg}
  ,                                       !- X Origin {m}
  ,                                       !- Y Origin {m}
  ,                                       !- Z Origin {m}
  {b6e4bbe2-5846-44be-bcfa-b3c0a161acbb}, !- Building Story Name
  {7267621f-fa6f-4485-83ec-11da0fb11939}, !- Thermal Zone Name
  ,                                       !- Part of Total Floor Area
  ,                                       !- Design Specification Outdoor Air Object Name
  ;                                       !- Building Unit Name

OS:Space,
  {38e44f0e-8640-454f-8f61-381949d06d44}, !- Handle
  E_SalaComedor,                          !- Name
  ,                                       !- Space Type Name
  ,                                       !- Default Construction Set Name
  ,                                       !- Default Schedule Set Name
  ,                                       !- Direction of Relative North {deg}
  ,                                       !- X Origin {m}
  ,                                       !- Y Origin {m}
  ,                                       !- Z Origin {m}
  {b6e4bbe2-5846-44be-bcfa-b3c0a161acbb}, !- Building Story Name
  {011277e3-115f-495f-9489-a7061ae83e0b}, !- Thermal Zone Name
  ,                                       !- Part of Total Floor Area
  ,                                       !- Design Specification Outdoor Air Object Name
  ;                                       !- Building Unit Name

OS:ThermalZone,
  {b028a990-d11f-47cc-bde8-51d4055dfb75}, !- Handle
  Escaleras,                              !- Name
  1,                                      !- Multiplier
  ,                                       !- Ceiling Height {m}
  ,                                       !- Volume {m3}
  ,                                       !- Floor Area {m2}
  ,                                       !- Zone Inside Convection Algorithm
  ,                                       !- Zone Outside Convection Algorithm
  ,                                       !- Zone Conditioning Equipment List Name
  {d655a9ef-a94b-4772-8158-728dccda2677}, !- Zone Air Inlet Port List
  {9f6d1592-c35d-49bb-9c16-73632a066fcd}, !- Zone Air Exhaust Port List
  {24c9d2d7-8b6d-4791-ba02-83cb1dc1ff61}, !- Zone Air Node Name
  {b0523610-4183-4f09-8062-43240e931c40}, !- Zone Return Air Port List
  ,                                       !- Primary Daylighting Control Name
  ,                                       !- Fraction of Zone Controlled by Primary Daylighting Control
  ,                                       !- Secondary Daylighting Control Name
  ,                                       !- Fraction of Zone Controlled by Secondary Daylighting Control
  ,                                       !- Illuminance Map Name
  {1195ecc9-072d-4763-97ef-111dbb0c965c}, !- Group Rendering Name
  ,                                       !- Thermostat Name
  No;                                     !- Use Ideal Air Loads

OS:Node,
  {fe522d12-cef0-48fd-aef5-bbbba4ab93af}, !- Handle
  Node 1,                                 !- Name
  {24c9d2d7-8b6d-4791-ba02-83cb1dc1ff61}, !- Inlet Port
  ;                                       !- Outlet Port

OS:Connection,
  {24c9d2d7-8b6d-4791-ba02-83cb1dc1ff61}, !- Handle
  {b028a990-d11f-47cc-bde8-51d4055dfb75}, !- Source Object
  11,                                     !- Outlet Port
  {fe522d12-cef0-48fd-aef5-bbbba4ab93af}, !- Target Object
  2;                                      !- Inlet Port

OS:PortList,
  {d655a9ef-a94b-4772-8158-728dccda2677}, !- Handle
  {b028a990-d11f-47cc-bde8-51d4055dfb75}; !- HVAC Component

OS:PortList,
  {9f6d1592-c35d-49bb-9c16-73632a066fcd}, !- Handle
  {b028a990-d11f-47cc-bde8-51d4055dfb75}; !- HVAC Component

OS:PortList,
  {b0523610-4183-4f09-8062-43240e931c40}, !- Handle
  {b028a990-d11f-47cc-bde8-51d4055dfb75}; !- HVAC Component

OS:Sizing:Zone,
  {ae8beb12-d252-419b-885a-15ff4df9e783}, !- Handle
  {b028a990-d11f-47cc-bde8-51d4055dfb75}, !- Zone or ZoneList Name
  SupplyAirTemperature,                   !- Zone Cooling Design Supply Air Temperature Input Method
  14,                                     !- Zone Cooling Design Supply Air Temperature {C}
  11.11,                                  !- Zone Cooling Design Supply Air Temperature Difference {deltaC}
  SupplyAirTemperature,                   !- Zone Heating Design Supply Air Temperature Input Method
  40,                                     !- Zone Heating Design Supply Air Temperature {C}
  11.11,                                  !- Zone Heating Design Supply Air Temperature Difference {deltaC}
  0.0085,                                 !- Zone Cooling Design Supply Air Humidity Ratio {kg-H2O/kg-air}
  0.008,                                  !- Zone Heating Design Supply Air Humidity Ratio {kg-H2O/kg-air}
  ,                                       !- Zone Heating Sizing Factor
  ,                                       !- Zone Cooling Sizing Factor
  DesignDay,                              !- Cooling Design Air Flow Method
  ,                                       !- Cooling Design Air Flow Rate {m3/s}
  ,                                       !- Cooling Minimum Air Flow per Zone Floor Area {m3/s-m2}
  ,                                       !- Cooling Minimum Air Flow {m3/s}
  ,                                       !- Cooling Minimum Air Flow Fraction
  DesignDay,                              !- Heating Design Air Flow Method
  ,                                       !- Heating Design Air Flow Rate {m3/s}
  ,                                       !- Heating Maximum Air Flow per Zone Floor Area {m3/s-m2}
  ,                                       !- Heating Maximum Air Flow {m3/s}
  ,                                       !- Heating Maximum Air Flow Fraction
  No,                                     !- Account for Dedicated Outdoor Air System
  NeutralSupplyAir,                       !- Dedicated Outdoor Air System Control Strategy
  autosize,                               !- Dedicated Outdoor Air Low Setpoint Temperature for Design {C}
  autosize,                               !- Dedicated Outdoor Air High Setpoint Temperature for Design {C}
  Sensible Load Only No Latent Load,      !- Zone Load Sizing Method
  HumidityRatioDifference,                !- Zone Latent Cooling Design Supply Air Humidity Ratio Input Method
  ,                                       !- Zone Dehumidification Design Supply Air Humidity Ratio {kgWater/kgDryAir}
  0.005,                                  !- Zone Cooling Design Supply Air Humidity Ratio Difference {kgWater/kgDryAir}
  HumidityRatioDifference,                !- Zone Latent Heating Design Supply Air Humidity Ratio Input Method
  ,                                       !- Zone Humidification Design Supply Air Humidity Ratio {kgWater/kgDryAir}
  0.005;                                  !- Zone Humidification Design Supply Air Humidity Ratio Difference {kgWater/kgDryAir}

OS:ZoneHVAC:EquipmentList,
  {56555678-7c9a-4157-8521-e5c1e4b92451}, !- Handle
  Zone HVAC Equipment List 1,             !- Name
  {b028a990-d11f-47cc-bde8-51d4055dfb75}; !- Thermal Zone

OS:Rendering:Color,
  {1195ecc9-072d-4763-97ef-111dbb0c965c}, !- Handle
  Rendering Color 2,                      !- Name
  255,                                    !- Rendering Red Value
  122,                                    !- Rendering Green Value
  160,                                    !- Rendering Blue Value
  255;                                    !- Rendering Alpha Value

OS:ThermalZone,
  {92cc2002-8c15-45c1-89e8-1e85d4b4d416}, !- Handle
  Cocina,                                 !- Name
  1,                                      !- Multiplier
  ,                                       !- Ceiling Height {m}
  ,                                       !- Volume {m3}
  ,                                       !- Floor Area {m2}
  ,                                       !- Zone Inside Convection Algorithm
  ,                                       !- Zone Outside Convection Algorithm
  ,                                       !- Zone Conditioning Equipment List Name
  {5c97254f-a382-4e1d-8fbc-e29b673acfec}, !- Zone Air Inlet Port List
  {38fc1018-731d-477c-aada-99009396df5e}, !- Zone Air Exhaust Port List
  {1ae5300c-374d-4706-8d5c-8cdc984d09f0}, !- Zone Air Node Name
  {1357ce43-750f-4b55-90ad-e91e46bb199c}, !- Zone Return Air Port List
  ,                                       !- Primary Daylighting Control Name
  ,                                       !- Fraction of Zone Controlled by Primary Daylighting Control
  ,                                       !- Secondary Daylighting Control Name
  ,                                       !- Fraction of Zone Controlled by Secondary Daylighting Control
  ,                                       !- Illuminance Map Name
  {c8f51dcf-74a2-401c-b87f-eb602adfdec4}, !- Group Rendering Name
  ,                                       !- Thermostat Name
  No;                                     !- Use Ideal Air Loads

OS:Node,
  {244fd362-f75e-4b2b-ad8a-b9f29b2fed3e}, !- Handle
  Node 2,                                 !- Name
  {1ae5300c-374d-4706-8d5c-8cdc984d09f0}, !- Inlet Port
  ;                                       !- Outlet Port

OS:Connection,
  {1ae5300c-374d-4706-8d5c-8cdc984d09f0}, !- Handle
  {92cc2002-8c15-45c1-89e8-1e85d4b4d416}, !- Source Object
  11,                                     !- Outlet Port
  {244fd362-f75e-4b2b-ad8a-b9f29b2fed3e}, !- Target Object
  2;                                      !- Inlet Port

OS:PortList,
  {5c97254f-a382-4e1d-8fbc-e29b673acfec}, !- Handle
  {92cc2002-8c15-45c1-89e8-1e85d4b4d416}; !- HVAC Component

OS:PortList,
  {38fc1018-731d-477c-aada-99009396df5e}, !- Handle
  {92cc2002-8c15-45c1-89e8-1e85d4b4d416}; !- HVAC Component

OS:PortList,
  {1357ce43-750f-4b55-90ad-e91e46bb199c}, !- Handle
  {92cc2002-8c15-45c1-89e8-1e85d4b4d416}; !- HVAC Component

OS:Sizing:Zone,
  {0e6136f6-3daf-4291-991a-d728372fdacb}, !- Handle
  {92cc2002-8c15-45c1-89e8-1e85d4b4d416}, !- Zone or ZoneList Name
  SupplyAirTemperature,                   !- Zone Cooling Design Supply Air Temperature Input Method
  14,                                     !- Zone Cooling Design Supply Air Temperature {C}
  11.11,                                  !- Zone Cooling Design Supply Air Temperature Difference {deltaC}
  SupplyAirTemperature,                   !- Zone Heating Design Supply Air Temperature Input Method
  40,                                     !- Zone Heating Design Supply Air Temperature {C}
  11.11,                                  !- Zone Heating Design Supply Air Temperature Difference {deltaC}
  0.0085,                                 !- Zone Cooling Design Supply Air Humidity Ratio {kg-H2O/kg-air}
  0.008,                                  !- Zone Heating Design Supply Air Humidity Ratio {kg-H2O/kg-air}
  ,                                       !- Zone Heating Sizing Factor
  ,                                       !- Zone Cooling Sizing Factor
  DesignDay,                              !- Cooling Design Air Flow Method
  ,                                       !- Cooling Design Air Flow Rate {m3/s}
  ,                                       !- Cooling Minimum Air Flow per Zone Floor Area {m3/s-m2}
  ,                                       !- Cooling Minimum Air Flow {m3/s}
  ,                                       !- Cooling Minimum Air Flow Fraction
  DesignDay,                              !- Heating Design Air Flow Method
  ,                                       !- Heating Design Air Flow Rate {m3/s}
  ,                                       !- Heating Maximum Air Flow per Zone Floor Area {m3/s-m2}
  ,                                       !- Heating Maximum Air Flow {m3/s}
  ,                                       !- Heating Maximum Air Flow Fraction
  No,                                     !- Account for Dedicated Outdoor Air System
  NeutralSupplyAir,                       !- Dedicated Outdoor Air System Control Strategy
  autosize,                               !- Dedicated Outdoor Air Low Setpoint Temperature for Design {C}
  autosize,                               !- Dedicated Outdoor Air High Setpoint Temperature for Design {C}
  Sensible Load Only No Latent Load,      !- Zone Load Sizing Method
  HumidityRatioDifference,                !- Zone Latent Cooling Design Supply Air Humidity Ratio Input Method
  ,                                       !- Zone Dehumidification Design Supply Air Humidity Ratio {kgWater/kgDryAir}
  0.005,                                  !- Zone Cooling Design Supply Air Humidity Ratio Difference {kgWater/kgDryAir}
  HumidityRatioDifference,                !- Zone Latent Heating Design Supply Air Humidity Ratio Input Method
  ,                                       !- Zone Humidification Design Supply Air Humidity Ratio {kgWater/kgDryAir}
  0.005;                                  !- Zone Humidification Design Supply Air Humidity Ratio Difference {kgWater/kgDryAir}

OS:ZoneHVAC:EquipmentList,
  {64d50a10-4d34-4256-ab6d-ceef098d924d}, !- Handle
  Zone HVAC Equipment List 2,             !- Name
  {92cc2002-8c15-45c1-89e8-1e85d4b4d416}; !- Thermal Zone

OS:Rendering:Color,
  {c8f51dcf-74a2-401c-b87f-eb602adfdec4}, !- Handle
  Rendering Color 3,                      !- Name
  184,                                    !- Rendering Red Value
  11,                                     !- Rendering Green Value
  134,                                    !- Rendering Blue Value
  255;                                    !- Rendering Alpha Value

OS:ThermalZone,
  {011277e3-115f-495f-9489-a7061ae83e0b}, !- Handle
  SalaComedor,                            !- Name
  1,                                      !- Multiplier
  ,                                       !- Ceiling Height {m}
  ,                                       !- Volume {m3}
  ,                                       !- Floor Area {m2}
  ,                                       !- Zone Inside Convection Algorithm
  ,                                       !- Zone Outside Convection Algorithm
  ,                                       !- Zone Conditioning Equipment List Name
  {5ba3304b-057a-4749-af26-2fd764b04438}, !- Zone Air Inlet Port List
  {b70e53dd-8045-4ed8-911d-372f2ce5c3f5}, !- Zone Air Exhaust Port List
  {388051bd-e4ad-45f6-964b-7e049bdfecc8}, !- Zone Air Node Name
  {b3117dc1-97d1-4f00-974c-c2a594e7632c}, !- Zone Return Air Port List
  ,                                       !- Primary Daylighting Control Name
  ,                                       !- Fraction of Zone Controlled by Primary Daylighting Control
  ,                                       !- Secondary Daylighting Control Name
  ,                                       !- Fraction of Zone Controlled by Secondary Daylighting Control
  ,                                       !- Illuminance Map Name
  {87faf4c8-0264-4e3a-9c20-b077f8b62d12}, !- Group Rendering Name
  ,                                       !- Thermostat Name
  No;                                     !- Use Ideal Air Loads

OS:Node,
  {86e52a55-6fed-4484-b8cd-ec809cd73b98}, !- Handle
  Node 3,                                 !- Name
  {388051bd-e4ad-45f6-964b-7e049bdfecc8}, !- Inlet Port
  ;                                       !- Outlet Port

OS:Connection,
  {388051bd-e4ad-45f6-964b-7e049bdfecc8}, !- Handle
  {011277e3-115f-495f-9489-a7061ae83e0b}, !- Source Object
  11,                                     !- Outlet Port
  {86e52a55-6fed-4484-b8cd-ec809cd73b98}, !- Target Object
  2;                                      !- Inlet Port

OS:PortList,
  {5ba3304b-057a-4749-af26-2fd764b04438}, !- Handle
  {011277e3-115f-495f-9489-a7061ae83e0b}; !- HVAC Component

OS:PortList,
  {b70e53dd-8045-4ed8-911d-372f2ce5c3f5}, !- Handle
  {011277e3-115f-495f-9489-a7061ae83e0b}; !- HVAC Component

OS:PortList,
  {b3117dc1-97d1-4f00-974c-c2a594e7632c}, !- Handle
  {011277e3-115f-495f-9489-a7061ae83e0b}; !- HVAC Component

OS:Sizing:Zone,
  {134104fe-1453-4450-b022-b01671ca6352}, !- Handle
  {011277e3-115f-495f-9489-a7061ae83e0b}, !- Zone or ZoneList Name
  SupplyAirTemperature,                   !- Zone Cooling Design Supply Air Temperature Input Method
  14,                                     !- Zone Cooling Design Supply Air Temperature {C}
  11.11,                                  !- Zone Cooling Design Supply Air Temperature Difference {deltaC}
  SupplyAirTemperature,                   !- Zone Heating Design Supply Air Temperature Input Method
  40,                                     !- Zone Heating Design Supply Air Temperature {C}
  11.11,                                  !- Zone Heating Design Supply Air Temperature Difference {deltaC}
  0.0085,                                 !- Zone Cooling Design Supply Air Humidity Ratio {kg-H2O/kg-air}
  0.008,                                  !- Zone Heating Design Supply Air Humidity Ratio {kg-H2O/kg-air}